 483
Generated by xyzcat.py
Cu 1.27799000 0.73784800 1.65221000
Cu 3.83397000 0.73784800 1.65221000
Cu 6.38995000 0.73784800 1.65221000
Cu 8.94593000 0.73784800 1.65221000
Cu 11.50190000 0.73784800 1.65221000
Cu 14.05790000 0.73784800 1.65221000
Cu 16.61390000 0.73784800 1.65221000
Cu 19.16980000 0.73784800 1.65221000
Cu 0.00000000 2.95139000 1.65221000
Cu 2.55598000 2.95139000 1.65221000
Cu 5.11196000 2.95139000 1.65221000
Cu 7.66794000 2.95139000 1.65221000
Cu 10.22390000 2.95139000 1.65221000
Cu 12.77990000 2.95139000 1.65221000
Cu 15.33590000 2.95139000 1.65221000
Cu 17.89190000 2.95139000 1.65221000
Cu 1.27799000 5.16493000 1.65221000
Cu 3.83397000 5.16493000 1.65221000
Cu 6.38995000 5.16493000 1.65221000
Cu 8.94593000 5.16493000 1.65221000
Cu 11.50190000 5.16493000 1.65221000
Cu 14.05790000 5.16493000 1.65221000
Cu 16.61390000 5.16493000 1.65221000
Cu 19.16980000 5.16493000 1.65221000
Cu 0.00000000 7.37848000 1.65221000
Cu 2.55598000 7.37848000 1.65221000
Cu 5.11196000 7.37848000 1.65221000
Cu 7.66794000 7.37848000 1.65221000
Cu 10.22390000 7.37848000 1.65221000
Cu 12.77990000 7.37848000 1.65221000
Cu 15.33590000 7.37848000 1.65221000
Cu 17.89190000 7.37848000 1.65221000
Cu 1.27799000 9.59202000 1.65221000
Cu 3.83397000 9.59202000 1.65221000
Cu 6.38995000 9.59202000 1.65221000
Cu 8.94593000 9.59202000 1.65221000
Cu 11.50190000 9.59202000 1.65221000
Cu 14.05790000 9.59202000 1.65221000
Cu 16.61390000 9.59202000 1.65221000
Cu 19.16980000 9.59202000 1.65221000
Cu 0.00000000 11.80560000 1.65221000
Cu 2.55598000 11.80560000 1.65221000
Cu 5.11196000 11.80560000 1.65221000
Cu 7.66794000 11.80560000 1.65221000
Cu 10.22390000 11.80560000 1.65221000
Cu 12.77990000 11.80560000 1.65221000
Cu 15.33590000 11.80560000 1.65221000
Cu 17.89190000 11.80560000 1.65221000
Cu 1.27799000 14.01910000 1.65221000
Cu 3.83397000 14.01910000 1.65221000
Cu 6.38995000 14.01910000 1.65221000
Cu 8.94593000 14.01910000 1.65221000
Cu 11.50190000 14.01910000 1.65221000
Cu 14.05790000 14.01910000 1.65221000
Cu 16.61390000 14.01910000 1.65221000
Cu 19.16980000 14.01910000 1.65221000
Cu 0.00000000 16.23260000 1.65221000
Cu 2.55598000 16.23260000 1.65221000
Cu 5.11196000 16.23260000 1.65221000
Cu 7.66794000 16.23260000 1.65221000
Cu 10.22390000 16.23260000 1.65221000
Cu 12.77990000 16.23260000 1.65221000
Cu 15.33590000 16.23260000 1.65221000
Cu 17.89190000 16.23260000 1.65221000
Cu 1.27799000 18.44620000 1.65221000
Cu 3.83397000 18.44620000 1.65221000
Cu 6.38995000 18.44620000 1.65221000
Cu 8.94593000 18.44620000 1.65221000
Cu 11.50190000 18.44620000 1.65221000
Cu 14.05790000 18.44620000 1.65221000
Cu 16.61390000 18.44620000 1.65221000
Cu 19.16980000 18.44620000 1.65221000
Cu 0.00000000 20.65970000 1.65221000
Cu 2.55598000 20.65970000 1.65221000
Cu 5.11196000 20.65970000 1.65221000
Cu 7.66794000 20.65970000 1.65221000
Cu 10.22390000 20.65970000 1.65221000
Cu 12.77990000 20.65970000 1.65221000
Cu 15.33590000 20.65970000 1.65221000
Cu 17.89190000 20.65970000 1.65221000
Cu 1.27799000 22.87330000 1.65221000
Cu 3.83397000 22.87330000 1.65221000
Cu 6.38995000 22.87330000 1.65221000
Cu 8.94593000 22.87330000 1.65221000
Cu 11.50190000 22.87330000 1.65221000
Cu 14.05790000 22.87330000 1.65221000
Cu 16.61390000 22.87330000 1.65221000
Cu 19.16980000 22.87330000 1.65221000
Cu 0.00000000 25.08680000 1.65221000
Cu 2.55598000 25.08680000 1.65221000
Cu 5.11196000 25.08680000 1.65221000
Cu 7.66794000 25.08680000 1.65221000
Cu 10.22390000 25.08680000 1.65221000
Cu 12.77990000 25.08680000 1.65221000
Cu 15.33590000 25.08680000 1.65221000
Cu 17.89190000 25.08680000 1.65221000
Cu 0.00000000 -0.00000000 3.73916000
Cu 2.55598000 -0.00000000 3.73916000
Cu 5.11196000 -0.00000000 3.73916000
Cu 7.66794000 -0.00000000 3.73916000
Cu 10.22390000 -0.00000000 3.73916000
Cu 12.77990000 -0.00000000 3.73916000
Cu 15.33590000 -0.00000000 3.73916000
Cu 17.89190000 -0.00000000 3.73916000
Cu 1.27799000 2.21354000 3.73916000
Cu 3.83397000 2.21354000 3.73916000
Cu 6.38995000 2.21354000 3.73916000
Cu 8.94593000 2.21354000 3.73916000
Cu 11.50190000 2.21354000 3.73916000
Cu 14.05790000 2.21354000 3.73916000
Cu 16.61390000 2.21354000 3.73916000
Cu 19.16980000 2.21354000 3.73916000
Cu 0.00000000 4.42709000 3.73916000
Cu 2.55598000 4.42709000 3.73916000
Cu 5.11196000 4.42709000 3.73916000
Cu 7.66794000 4.42709000 3.73916000
Cu 10.22390000 4.42709000 3.73916000
Cu 12.77990000 4.42709000 3.73916000
Cu 15.33590000 4.42709000 3.73916000
Cu 17.89190000 4.42709000 3.73916000
Cu 1.27799000 6.64063000 3.73916000
Cu 3.83397000 6.64063000 3.73916000
Cu 6.38995000 6.64063000 3.73916000
Cu 8.94593000 6.64063000 3.73916000
Cu 11.50190000 6.64063000 3.73916000
Cu 14.05790000 6.64063000 3.73916000
Cu 16.61390000 6.64063000 3.73916000
Cu 19.16980000 6.64063000 3.73916000
Cu -0.00000000 8.85417000 3.73916000
Cu 2.55598000 8.85417000 3.73916000
Cu 5.11196000 8.85417000 3.73916000
Cu 7.66794000 8.85417000 3.73916000
Cu 10.22390000 8.85417000 3.73916000
Cu 12.77990000 8.85417000 3.73916000
Cu 15.33590000 8.85417000 3.73916000
Cu 17.89190000 8.85417000 3.73916000
Cu 1.27799000 11.06770000 3.73916000
Cu 3.83397000 11.06770000 3.73916000
Cu 6.38995000 11.06770000 3.73916000
Cu 8.94593000 11.06770000 3.73916000
Cu 11.50190000 11.06770000 3.73916000
Cu 14.05790000 11.06770000 3.73916000
Cu 16.61390000 11.06770000 3.73916000
Cu 19.16980000 11.06770000 3.73916000
Cu 0.00000000 13.28130000 3.73916000
Cu 2.55598000 13.28130000 3.73916000
Cu 5.11196000 13.28130000 3.73916000
Cu 7.66794000 13.28130000 3.73916000
Cu 10.22390000 13.28130000 3.73916000
Cu 12.77990000 13.28130000 3.73916000
Cu 15.33590000 13.28130000 3.73916000
Cu 17.89190000 13.28130000 3.73916000
Cu 1.27799000 15.49480000 3.73916000
Cu 3.83397000 15.49480000 3.73916000
Cu 6.38995000 15.49480000 3.73916000
Cu 8.94593000 15.49480000 3.73916000
Cu 11.50190000 15.49480000 3.73916000
Cu 14.05790000 15.49480000 3.73916000
Cu 16.61390000 15.49480000 3.73916000
Cu 19.16980000 15.49480000 3.73916000
Cu -0.00000000 17.70830000 3.73916000
Cu 2.55598000 17.70830000 3.73916000
Cu 5.11196000 17.70830000 3.73916000
Cu 7.66794000 17.70830000 3.73916000
Cu 10.22390000 17.70830000 3.73916000
Cu 12.77990000 17.70830000 3.73916000
Cu 15.33590000 17.70830000 3.73916000
Cu 17.89190000 17.70830000 3.73916000
Cu 1.27799000 19.92190000 3.73916000
Cu 3.83397000 19.92190000 3.73916000
Cu 6.38995000 19.92190000 3.73916000
Cu 8.94593000 19.92190000 3.73916000
Cu 11.50190000 19.92190000 3.73916000
Cu 14.05790000 19.92190000 3.73916000
Cu 16.61390000 19.92190000 3.73916000
Cu 19.16980000 19.92190000 3.73916000
Cu 0.00000000 22.13540000 3.73916000
Cu 2.55598000 22.13540000 3.73916000
Cu 5.11196000 22.13540000 3.73916000
Cu 7.66794000 22.13540000 3.73916000
Cu 10.22390000 22.13540000 3.73916000
Cu 12.77990000 22.13540000 3.73916000
Cu 15.33590000 22.13540000 3.73916000
Cu 17.89190000 22.13540000 3.73916000
Cu 1.27799000 24.34900000 3.73916000
Cu 3.83397000 24.34900000 3.73916000
Cu 6.38995000 24.34900000 3.73916000
Cu 8.94593000 24.34900000 3.73916000
Cu 11.50190000 24.34900000 3.73916000
Cu 14.05790000 24.34900000 3.73916000
Cu 16.61390000 24.34900000 3.73916000
Cu 19.16980000 24.34900000 3.73916000
Cu 0.00000000 1.47570000 5.82610000
Cu 2.55598000 1.47570000 5.82610000
Cu 5.11196000 1.47570000 5.82610000
Cu 7.66794000 1.47570000 5.82610000
Cu 10.22390000 1.47570000 5.82610000
Cu 12.77990000 1.47570000 5.82610000
Cu 15.33590000 1.47570000 5.82610000
Cu 17.89190000 1.47570000 5.82610000
Cu 1.27799000 3.68924000 5.82610000
Cu 3.83397000 3.68924000 5.82610000
Cu 6.38995000 3.68924000 5.82610000
Cu 8.94593000 3.68924000 5.82610000
Cu 11.50190000 3.68924000 5.82610000
Cu 14.05790000 3.68924000 5.82610000
Cu 16.61390000 3.68924000 5.82610000
Cu 19.16980000 3.68924000 5.82610000
Cu 0.00000000 5.90278000 5.82610000
Cu 2.55598000 5.90278000 5.82610000
Cu 5.11196000 5.90278000 5.82610000
Cu 7.66794000 5.90278000 5.82610000
Cu 10.22390000 5.90278000 5.82610000
Cu 12.77990000 5.90278000 5.82610000
Cu 15.33590000 5.90278000 5.82610000
Cu 17.89190000 5.90278000 5.82610000
Cu 1.27799000 8.11632000 5.82610000
Cu 3.83397000 8.11632000 5.82610000
Cu 6.38995000 8.11632000 5.82610000
Cu 8.94593000 8.11632000 5.82610000
Cu 11.50190000 8.11632000 5.82610000
Cu 14.05790000 8.11632000 5.82610000
Cu 16.61390000 8.11632000 5.82610000
Cu 19.16980000 8.11632000 5.82610000
Cu 0.00000000 10.32990000 5.82610000
Cu 2.55598000 10.32990000 5.82610000
Cu 5.11196000 10.32990000 5.82610000
Cu 7.66794000 10.32990000 5.82610000
Cu 10.22390000 10.32990000 5.82610000
Cu 12.77990000 10.32990000 5.82610000
Cu 15.33590000 10.32990000 5.82610000
Cu 17.89190000 10.32990000 5.82610000
Cu 1.27799000 12.54340000 5.82610000
Cu 3.83397000 12.54340000 5.82610000
Cu 6.38995000 12.54340000 5.82610000
Cu 8.94593000 12.54340000 5.82610000
Cu 11.50190000 12.54340000 5.82610000
Cu 14.05790000 12.54340000 5.82610000
Cu 16.61390000 12.54340000 5.82610000
Cu 19.16980000 12.54340000 5.82610000
Cu 0.00000000 14.75700000 5.82610000
Cu 2.55598000 14.75700000 5.82610000
Cu 5.11196000 14.75700000 5.82610000
Cu 7.66794000 14.75700000 5.82610000
Cu 10.22390000 14.75700000 5.82610000
Cu 12.77990000 14.75700000 5.82610000
Cu 15.33590000 14.75700000 5.82610000
Cu 17.89190000 14.75700000 5.82610000
Cu 1.27799000 16.97050000 5.82610000
Cu 3.83397000 16.97050000 5.82610000
Cu 6.38995000 16.97050000 5.82610000
Cu 8.94593000 16.97050000 5.82610000
Cu 11.50190000 16.97050000 5.82610000
Cu 14.05790000 16.97050000 5.82610000
Cu 16.61390000 16.97050000 5.82610000
Cu 19.16980000 16.97050000 5.82610000
Cu 0.00000000 19.18400000 5.82610000
Cu 2.55598000 19.18400000 5.82610000
Cu 5.11196000 19.18400000 5.82610000
Cu 7.66794000 19.18400000 5.82610000
Cu 10.22390000 19.18400000 5.82610000
Cu 12.77990000 19.18400000 5.82610000
Cu 15.33590000 19.18400000 5.82610000
Cu 17.89190000 19.18400000 5.82610000
Cu 1.27799000 21.39760000 5.82610000
Cu 3.83397000 21.39760000 5.82610000
Cu 6.38995000 21.39760000 5.82610000
Cu 8.94593000 21.39760000 5.82610000
Cu 11.50190000 21.39760000 5.82610000
Cu 14.05790000 21.39760000 5.82610000
Cu 16.61390000 21.39760000 5.82610000
Cu 19.16980000 21.39760000 5.82610000
Cu 0.00000000 23.61110000 5.82610000
Cu 2.55598000 23.61110000 5.82610000
Cu 5.11196000 23.61110000 5.82610000
Cu 7.66794000 23.61110000 5.82610000
Cu 10.22390000 23.61110000 5.82610000
Cu 12.77990000 23.61110000 5.82610000
Cu 15.33590000 23.61110000 5.82610000
Cu 17.89190000 23.61110000 5.82610000
Cu 1.27799000 25.82470000 5.82610000
Cu 3.83397000 25.82470000 5.82610000
Cu 6.38995000 25.82470000 5.82610000
Cu 8.94593000 25.82470000 5.82610000
Cu 11.50190000 25.82470000 5.82610000
Cu 14.05790000 25.82470000 5.82610000
Cu 16.61390000 25.82470000 5.82610000
Cu 19.16980000 25.82470000 5.82610000
Cu 1.27799000 0.73784800 7.91305000
Cu 3.83397000 0.73784800 7.91305000
Cu 6.38995000 0.73784800 7.91305000
Cu 8.94593000 0.73784800 7.91305000
Cu 11.50190000 0.73784800 7.91305000
Cu 14.05790000 0.73784800 7.91305000
Cu 16.61390000 0.73784800 7.91305000
Cu 19.16980000 0.73784800 7.91305000
Cu 0.00000000 2.95139000 7.91305000
Cu 2.55598000 2.95139000 7.91305000
Cu 5.11196000 2.95139000 7.91305000
Cu 7.66794000 2.95139000 7.91305000
Cu 10.22390000 2.95139000 7.91305000
Cu 12.77990000 2.95139000 7.91305000
Cu 15.33590000 2.95139000 7.91305000
Cu 17.89190000 2.95139000 7.91305000
Cu 1.27799000 5.16493000 7.91305000
Cu 3.83397000 5.16493000 7.91305000
Cu 6.38995000 5.16493000 7.91305000
Cu 8.94593000 5.16493000 7.91305000
Cu 11.50190000 5.16493000 7.91305000
Cu 14.05790000 5.16493000 7.91305000
Cu 16.61390000 5.16493000 7.91305000
Cu 19.16980000 5.16493000 7.91305000
Cu 0.00000000 7.37848000 7.91305000
Cu 2.55598000 7.37848000 7.91305000
Cu 5.11196000 7.37848000 7.91305000
Cu 7.66794000 7.37848000 7.91305000
Cu 10.22390000 7.37848000 7.91305000
Cu 12.77990000 7.37848000 7.91305000
Cu 15.33590000 7.37848000 7.91305000
Cu 17.89190000 7.37848000 7.91305000
Cu 1.27799000 9.59202000 7.91305000
Cu 3.83397000 9.59202000 7.91305000
Cu 6.38995000 9.59202000 7.91305000
Cu 8.94593000 9.59202000 7.91305000
Cu 11.50190000 9.59202000 7.91305000
Cu 14.05790000 9.59202000 7.91305000
Cu 16.61390000 9.59202000 7.91305000
Cu 19.16980000 9.59202000 7.91305000
Cu 0.00000000 11.80560000 7.91305000
Cu 2.55598000 11.80560000 7.91305000
Cu 5.11196000 11.80560000 7.91305000
Cu 7.66794000 11.80560000 7.91305000
Cu 10.22390000 11.80560000 7.91305000
Cu 12.77990000 11.80560000 7.91305000
Cu 15.33590000 11.80560000 7.91305000
Cu 17.89190000 11.80560000 7.91305000
Cu 1.27799000 14.01910000 7.91305000
Cu 3.83397000 14.01910000 7.91305000
Cu 6.38995000 14.01910000 7.91305000
Cu 8.94593000 14.01910000 7.91305000
Cu 11.50190000 14.01910000 7.91305000
Cu 14.05790000 14.01910000 7.91305000
Cu 16.61390000 14.01910000 7.91305000
Cu 19.16980000 14.01910000 7.91305000
Cu 0.00000000 16.23260000 7.91305000
Cu 2.55598000 16.23260000 7.91305000
Cu 5.11196000 16.23260000 7.91305000
Cu 7.66794000 16.23260000 7.91305000
Cu 10.22390000 16.23260000 7.91305000
Cu 12.77990000 16.23260000 7.91305000
Cu 15.33590000 16.23260000 7.91305000
Cu 17.89190000 16.23260000 7.91305000
Cu 1.27799000 18.44620000 7.91305000
Cu 3.83397000 18.44620000 7.91305000
Cu 6.38995000 18.44620000 7.91305000
Cu 8.94593000 18.44620000 7.91305000
Cu 11.50190000 18.44620000 7.91305000
Cu 14.05790000 18.44620000 7.91305000
Cu 16.61390000 18.44620000 7.91305000
Cu 19.16980000 18.44620000 7.91305000
Cu 0.00000000 20.65970000 7.91305000
Cu 2.55598000 20.65970000 7.91305000
Cu 5.11196000 20.65970000 7.91305000
Cu 7.66794000 20.65970000 7.91305000
Cu 10.22390000 20.65970000 7.91305000
Cu 12.77990000 20.65970000 7.91305000
Cu 15.33590000 20.65970000 7.91305000
Cu 17.89190000 20.65970000 7.91305000
Cu 1.27799000 22.87330000 7.91305000
Cu 3.83397000 22.87330000 7.91305000
Cu 6.38995000 22.87330000 7.91305000
Cu 8.94593000 22.87330000 7.91305000
Cu 11.50190000 22.87330000 7.91305000
Cu 14.05790000 22.87330000 7.91305000
Cu 16.61390000 22.87330000 7.91305000
Cu 19.16980000 22.87330000 7.91305000
Cu 0.00000000 25.08680000 7.91305000
Cu 2.55598000 25.08680000 7.91305000
Cu 5.11196000 25.08680000 7.91305000
Cu 7.66794000 25.08680000 7.91305000
Cu 10.22390000 25.08680000 7.91305000
Cu 12.77990000 25.08680000 7.91305000
Cu 15.33590000 25.08680000 7.91305000
Cu 17.89190000 25.08680000 7.91305000
Cu 0.00000000 4.42709000 10.00000000
Cu 2.55598000 4.42709000 10.00000000
Cu 5.11196000 4.42709000 10.00000000
Cu 7.66794000 4.42709000 10.00000000
Cu 10.22390000 4.42709000 10.00000000
Cu 12.77990000 4.42709000 10.00000000
Cu 15.33590000 4.42709000 10.00000000
Cu 17.89190000 4.42709000 10.00000000
Cu 1.27799000 6.64063000 10.00000000
Cu 3.83397000 6.64063000 10.00000000
Cu 6.38995000 6.64063000 10.00000000
Cu 8.94593000 6.64063000 10.00000000
Cu 11.50190000 6.64063000 10.00000000
Cu 14.05790000 6.64063000 10.00000000
Cu 16.61390000 6.64063000 10.00000000
Cu 19.16980000 6.64063000 10.00000000
Cu -0.00000000 8.85417000 10.00000000
Cu 2.55598000 8.85417000 10.00000000
Cu 5.11196000 8.85417000 10.00000000
Cu 7.66794000 8.85417000 10.00000000
Cu 10.22390000 8.85417000 10.00000000
Cu 12.77990000 8.85417000 10.00000000
Cu 15.33590000 8.85417000 10.00000000
Cu 17.89190000 8.85417000 10.00000000
Cu 1.27799000 11.06770000 10.00000000
Cu 3.83397000 11.06770000 10.00000000
Cu 6.38995000 11.06770000 10.00000000
Cu 8.94593000 11.06770000 10.00000000
Cu 11.50190000 11.06770000 10.00000000
Cu 14.05790000 11.06770000 10.00000000
Cu 16.61390000 11.06770000 10.00000000
Cu 19.16980000 11.06770000 10.00000000
Cu 0.00000000 13.28130000 10.00000000
Cu 2.55598000 13.28130000 10.00000000
Cu 5.11196000 13.28130000 10.00000000
Cu 7.66794000 13.28130000 10.00000000
Cu 10.22390000 13.28130000 10.00000000
Cu 12.77990000 13.28130000 10.00000000
Cu 15.33590000 13.28130000 10.00000000
Cu 17.89190000 13.28130000 10.00000000
Cu 1.27799000 15.49480000 10.00000000
Cu 3.83397000 15.49480000 10.00000000
Cu 6.38995000 15.49480000 10.00000000
Cu 8.94593000 15.49480000 10.00000000
Cu 11.50190000 15.49480000 10.00000000
Cu 14.05790000 15.49480000 10.00000000
Cu 16.61390000 15.49480000 10.00000000
Cu 19.16980000 15.49480000 10.00000000
Cu -0.00000000 17.70830000 10.00000000
Cu 2.55598000 17.70830000 10.00000000
Cu 5.11196000 17.70830000 10.00000000
Cu 7.66794000 17.70830000 10.00000000
Cu 10.22390000 17.70830000 10.00000000
Cu 12.77990000 17.70830000 10.00000000
Cu 15.33590000 17.70830000 10.00000000
Cu 17.89190000 17.70830000 10.00000000
Cu 1.27799000 19.92190000 10.00000000
Cu 3.83397000 19.92190000 10.00000000
Cu 6.38995000 19.92190000 10.00000000
Cu 8.94593000 19.92190000 10.00000000
Cu 11.50190000 19.92190000 10.00000000
Cu 14.05790000 19.92190000 10.00000000
Cu 16.61390000 19.92190000 10.00000000
Cu 19.16980000 19.92190000 10.00000000
Cu 0.00000000 22.13540000 10.00000000
Cu 2.55598000 22.13540000 10.00000000
Cu 5.11196000 22.13540000 10.00000000
Cu 7.66794000 22.13540000 10.00000000
Cu 10.22390000 22.13540000 10.00000000
Cu 12.77990000 22.13540000 10.00000000
Cu 15.33590000 22.13540000 10.00000000
Cu 17.89190000 22.13540000 10.00000000
Cu 1.27799000 24.34900000 10.00000000
Cu 3.83397000 24.34900000 10.00000000
Cu 6.38995000 24.34900000 10.00000000
Cu 8.94593000 24.34900000 10.00000000
Cu 11.50190000 24.34900000 10.00000000
Cu 14.05790000 24.34900000 10.00000000
Cu 16.61390000 24.34900000 10.00000000
Cu 19.16980000 24.34900000 10.00000000
Cu 0.00000000 0.00000000 10.00000000
Cu 2.55598000 0.00000000 10.00000000
Cu 5.11196000 0.00000000 10.00000000
Cu 7.66794000 0.00000000 10.00000000
Cu 10.22390000 0.00000000 10.00000000
Cu 12.77990000 0.00000000 10.00000000
Cu 15.33590000 0.00000000 10.00000000
Cu 17.89190000 0.00000000 10.00000000
Cu 1.27799000 2.21354000 10.00000000
Cu 3.83397000 2.21354000 10.00000000
Cu 6.38995000 2.21354000 10.00000000
Cu 8.94593000 2.21354000 10.00000000
Cu 11.50190000 2.21354000 10.00000000
Cu 14.05790000 2.21354000 10.00000000
Cu 16.61390000 2.21354000 10.00000000
Cu 19.16980000 2.21354000 10.00000000
O 5.00000000 5.00000000 13.00000000
H 5.81650000 5.57740000 13.00000000
H 4.18350000 5.57740000 13.00000000
