13
Molecule 1  0.000000
C -12.2974  0.8938 -0.0338
C -11.1901  1.5770 -0.3240
C -9.8634  0.9227 -0.3779
O -8.8712  1.6063 -0.6544
N -9.7046 -0.3824 -0.1374
H -13.2329  1.3933 -0.0036
H -12.2476 -0.1442  0.1662
H -11.2616  2.6168 -0.5217
C -8.3944 -0.9565 -0.2054
H -10.4770 -0.9587  0.0867
H -8.3899 -1.9405  0.2848
H -7.6721 -0.2819  0.2766
H -8.1114 -1.0720 -1.2614
