16
Molecule 2  0.000000
C -13.3233  4.0339  4.8414
C -12.3187  3.5780  3.9960
C -12.3245  2.2620  3.5474
C -13.3425  1.4025  3.9497
C -14.3476  1.8576  4.7951
C -14.3385  3.1736  5.2414
C -11.2427  1.8088  2.6500
O -10.3626  2.6114  2.3200
N -11.1869  0.5584  2.1847
H -10.3842  0.2745  1.5367
H -11.8749 -0.1088  2.4292
H -13.3150  5.0384  5.1812
H -11.5451  4.2363  3.6921
H -13.3547  0.3996  3.6132
H -15.1219  1.2001  5.0997
H -15.1054  3.5208  5.8865
