480
structure
Cu 1.27799 0.737848 1.65221
Cu 3.83397 0.737848 1.65221
Cu 6.38995 0.737848 1.65221
Cu 8.94593 0.737848 1.65221
Cu 11.5019 0.737848 1.65221
Cu 14.0579 0.737848 1.65221
Cu 16.6139 0.737848 1.65221
Cu 19.1698 0.737848 1.65221
Cu 4e-15 2.95139 1.65221
Cu 2.55598 2.95139 1.65221
Cu 5.11196 2.95139 1.65221
Cu 7.66794 2.95139 1.65221
Cu 10.2239 2.95139 1.65221
Cu 12.7799 2.95139 1.65221
Cu 15.3359 2.95139 1.65221
Cu 17.8919 2.95139 1.65221
Cu 1.27799 5.16493 1.65221
Cu 3.83397 5.16493 1.65221
Cu 6.38995 5.16493 1.65221
Cu 8.94593 5.16493 1.65221
Cu 11.5019 5.16493 1.65221
Cu 14.0579 5.16493 1.65221
Cu 16.6139 5.16493 1.65221
Cu 19.1698 5.16493 1.65221
Cu 4e-15 7.37848 1.65221
Cu 2.55598 7.37848 1.65221
Cu 5.11196 7.37848 1.65221
Cu 7.66794 7.37848 1.65221
Cu 10.2239 7.37848 1.65221
Cu 12.7799 7.37848 1.65221
Cu 15.3359 7.37848 1.65221
Cu 17.8919 7.37848 1.65221
Cu 1.27799 9.59202 1.65221
Cu 3.83397 9.59202 1.65221
Cu 6.38995 9.59202 1.65221
Cu 8.94593 9.59202 1.65221
Cu 11.5019 9.59202 1.65221
Cu 14.0579 9.59202 1.65221
Cu 16.6139 9.59202 1.65221
Cu 19.1698 9.59202 1.65221
Cu 3e-15 11.8056 1.65221
Cu 2.55598 11.8056 1.65221
Cu 5.11196 11.8056 1.65221
Cu 7.66794 11.8056 1.65221
Cu 10.2239 11.8056 1.65221
Cu 12.7799 11.8056 1.65221
Cu 15.3359 11.8056 1.65221
Cu 17.8919 11.8056 1.65221
Cu 1.27799 14.0191 1.65221
Cu 3.83397 14.0191 1.65221
Cu 6.38995 14.0191 1.65221
Cu 8.94593 14.0191 1.65221
Cu 11.5019 14.0191 1.65221
Cu 14.0579 14.0191 1.65221
Cu 16.6139 14.0191 1.65221
Cu 19.1698 14.0191 1.65221
Cu 3e-15 16.2326 1.65221
Cu 2.55598 16.2326 1.65221
Cu 5.11196 16.2326 1.65221
Cu 7.66794 16.2326 1.65221
Cu 10.2239 16.2326 1.65221
Cu 12.7799 16.2326 1.65221
Cu 15.3359 16.2326 1.65221
Cu 17.8919 16.2326 1.65221
Cu 1.27799 18.4462 1.65221
Cu 3.83397 18.4462 1.65221
Cu 6.38995 18.4462 1.65221
Cu 8.94593 18.4462 1.65221
Cu 11.5019 18.4462 1.65221
Cu 14.0579 18.4462 1.65221
Cu 16.6139 18.4462 1.65221
Cu 19.1698 18.4462 1.65221
Cu 2e-15 20.6597 1.65221
Cu 2.55598 20.6597 1.65221
Cu 5.11196 20.6597 1.65221
Cu 7.66794 20.6597 1.65221
Cu 10.2239 20.6597 1.65221
Cu 12.7799 20.6597 1.65221
Cu 15.3359 20.6597 1.65221
Cu 17.8919 20.6597 1.65221
Cu 1.27799 22.8733 1.65221
Cu 3.83397 22.8733 1.65221
Cu 6.38995 22.8733 1.65221
Cu 8.94593 22.8733 1.65221
Cu 11.5019 22.8733 1.65221
Cu 14.0579 22.8733 1.65221
Cu 16.6139 22.8733 1.65221
Cu 19.1698 22.8733 1.65221
Cu 2e-15 25.0868 1.65221
Cu 2.55598 25.0868 1.65221
Cu 5.11196 25.0868 1.65221
Cu 7.66794 25.0868 1.65221
Cu 10.2239 25.0868 1.65221
Cu 12.7799 25.0868 1.65221
Cu 15.3359 25.0868 1.65221
Cu 17.8919 25.0868 1.65221
Cu 0.0 -8e-15 3.73916
Cu 2.55598 -8e-15 3.73916
Cu 5.11196 -8e-15 3.73916
Cu 7.66794 -8e-15 3.73916
Cu 10.2239 -8e-15 3.73916
Cu 12.7799 -8e-15 3.73916
Cu 15.3359 -8e-15 3.73916
Cu 17.8919 -8e-15 3.73916
Cu 1.27799 2.21354 3.73916
Cu 3.83397 2.21354 3.73916
Cu 6.38995 2.21354 3.73916
Cu 8.94593 2.21354 3.73916
Cu 11.5019 2.21354 3.73916
Cu 14.0579 2.21354 3.73916
Cu 16.6139 2.21354 3.73916
Cu 19.1698 2.21354 3.73916
Cu 2e-15 4.42709 3.73916
Cu 2.55598 4.42709 3.73916
Cu 5.11196 4.42709 3.73916
Cu 7.66794 4.42709 3.73916
Cu 10.2239 4.42709 3.73916
Cu 12.7799 4.42709 3.73916
Cu 15.3359 4.42709 3.73916
Cu 17.8919 4.42709 3.73916
Cu 1.27799 6.64063 3.73916
Cu 3.83397 6.64063 3.73916
Cu 6.38995 6.64063 3.73916
Cu 8.94593 6.64063 3.73916
Cu 11.5019 6.64063 3.73916
Cu 14.0579 6.64063 3.73916
Cu 16.6139 6.64063 3.73916
Cu 19.1698 6.64063 3.73916
Cu -1e-15 8.85417 3.73916
Cu 2.55598 8.85417 3.73916
Cu 5.11196 8.85417 3.73916
Cu 7.66794 8.85417 3.73916
Cu 10.2239 8.85417 3.73916
Cu 12.7799 8.85417 3.73916
Cu 15.3359 8.85417 3.73916
Cu 17.8919 8.85417 3.73916
Cu 1.27799 11.0677 3.73916
Cu 3.83397 11.0677 3.73916
Cu 6.38995 11.0677 3.73916
Cu 8.94593 11.0677 3.73916
Cu 11.5019 11.0677 3.73916
Cu 14.0579 11.0677 3.73916
Cu 16.6139 11.0677 3.73916
Cu 19.1698 11.0677 3.73916
Cu 1e-15 13.2813 3.73916
Cu 2.55598 13.2813 3.73916
Cu 5.11196 13.2813 3.73916
Cu 7.66794 13.2813 3.73916
Cu 10.2239 13.2813 3.73916
Cu 12.7799 13.2813 3.73916
Cu 15.3359 13.2813 3.73916
Cu 17.8919 13.2813 3.73916
Cu 1.27799 15.4948 3.73916
Cu 3.83397 15.4948 3.73916
Cu 6.38995 15.4948 3.73916
Cu 8.94593 15.4948 3.73916
Cu 11.5019 15.4948 3.73916
Cu 14.0579 15.4948 3.73916
Cu 16.6139 15.4948 3.73916
Cu 19.1698 15.4948 3.73916
Cu -2e-15 17.7083 3.73916
Cu 2.55598 17.7083 3.73916
Cu 5.11196 17.7083 3.73916
Cu 7.66794 17.7083 3.73916
Cu 10.2239 17.7083 3.73916
Cu 12.7799 17.7083 3.73916
Cu 15.3359 17.7083 3.73916
Cu 17.8919 17.7083 3.73916
Cu 1.27799 19.9219 3.73916
Cu 3.83397 19.9219 3.73916
Cu 6.38995 19.9219 3.73916
Cu 8.94593 19.9219 3.73916
Cu 11.5019 19.9219 3.73916
Cu 14.0579 19.9219 3.73916
Cu 16.6139 19.9219 3.73916
Cu 19.1698 19.9219 3.73916
Cu 0.0 22.1354 3.73916
Cu 2.55598 22.1354 3.73916
Cu 5.11196 22.1354 3.73916
Cu 7.66794 22.1354 3.73916
Cu 10.2239 22.1354 3.73916
Cu 12.7799 22.1354 3.73916
Cu 15.3359 22.1354 3.73916
Cu 17.8919 22.1354 3.73916
Cu 1.27799 24.349 3.73916
Cu 3.83397 24.349 3.73916
Cu 6.38995 24.349 3.73916
Cu 8.94593 24.349 3.73916
Cu 11.5019 24.349 3.73916
Cu 14.0579 24.349 3.73916
Cu 16.6139 24.349 3.73916
Cu 19.1698 24.349 3.73916
Cu 2e-15 1.4757 5.8261
Cu 2.55598 1.4757 5.8261
Cu 5.11196 1.4757 5.8261
Cu 7.66794 1.4757 5.8261
Cu 10.2239 1.4757 5.8261
Cu 12.7799 1.4757 5.8261
Cu 15.3359 1.4757 5.8261
Cu 17.8919 1.4757 5.8261
Cu 1.27799 3.68924 5.8261
Cu 3.83397 3.68924 5.8261
Cu 6.38995 3.68924 5.8261
Cu 8.94593 3.68924 5.8261
Cu 11.5019 3.68924 5.8261
Cu 14.0579 3.68924 5.8261
Cu 16.6139 3.68924 5.8261
Cu 19.1698 3.68924 5.8261
Cu 4e-15 5.90278 5.8261
Cu 2.55598 5.90278 5.8261
Cu 5.11196 5.90278 5.8261
Cu 7.66794 5.90278 5.8261
Cu 10.2239 5.90278 5.8261
Cu 12.7799 5.90278 5.8261
Cu 15.3359 5.90278 5.8261
Cu 17.8919 5.90278 5.8261
Cu 1.27799 8.11632 5.8261
Cu 3.83397 8.11632 5.8261
Cu 6.38995 8.11632 5.8261
Cu 8.94593 8.11632 5.8261
Cu 11.5019 8.11632 5.8261
Cu 14.0579 8.11632 5.8261
Cu 16.6139 8.11632 5.8261
Cu 19.1698 8.11632 5.8261
Cu 1e-15 10.3299 5.8261
Cu 2.55598 10.3299 5.8261
Cu 5.11196 10.3299 5.8261
Cu 7.66794 10.3299 5.8261
Cu 10.2239 10.3299 5.8261
Cu 12.7799 10.3299 5.8261
Cu 15.3359 10.3299 5.8261
Cu 17.8919 10.3299 5.8261
Cu 1.27799 12.5434 5.8261
Cu 3.83397 12.5434 5.8261
Cu 6.38995 12.5434 5.8261
Cu 8.94593 12.5434 5.8261
Cu 11.5019 12.5434 5.8261
Cu 14.0579 12.5434 5.8261
Cu 16.6139 12.5434 5.8261
Cu 19.1698 12.5434 5.8261
Cu 3e-15 14.757 5.8261
Cu 2.55598 14.757 5.8261
Cu 5.11196 14.757 5.8261
Cu 7.66794 14.757 5.8261
Cu 10.2239 14.757 5.8261
Cu 12.7799 14.757 5.8261
Cu 15.3359 14.757 5.8261
Cu 17.8919 14.757 5.8261
Cu 1.27799 16.9705 5.8261
Cu 3.83397 16.9705 5.8261
Cu 6.38995 16.9705 5.8261
Cu 8.94593 16.9705 5.8261
Cu 11.5019 16.9705 5.8261
Cu 14.0579 16.9705 5.8261
Cu 16.6139 16.9705 5.8261
Cu 19.1698 16.9705 5.8261
Cu 0.0 19.184 5.8261
Cu 2.55598 19.184 5.8261
Cu 5.11196 19.184 5.8261
Cu 7.66794 19.184 5.8261
Cu 10.2239 19.184 5.8261
Cu 12.7799 19.184 5.8261
Cu 15.3359 19.184 5.8261
Cu 17.8919 19.184 5.8261
Cu 1.27799 21.3976 5.8261
Cu 3.83397 21.3976 5.8261
Cu 6.38995 21.3976 5.8261
Cu 8.94593 21.3976 5.8261
Cu 11.5019 21.3976 5.8261
Cu 14.0579 21.3976 5.8261
Cu 16.6139 21.3976 5.8261
Cu 19.1698 21.3976 5.8261
Cu 2e-15 23.6111 5.8261
Cu 2.55598 23.6111 5.8261
Cu 5.11196 23.6111 5.8261
Cu 7.66794 23.6111 5.8261
Cu 10.2239 23.6111 5.8261
Cu 12.7799 23.6111 5.8261
Cu 15.3359 23.6111 5.8261
Cu 17.8919 23.6111 5.8261
Cu 1.27799 25.8247 5.8261
Cu 3.83397 25.8247 5.8261
Cu 6.38995 25.8247 5.8261
Cu 8.94593 25.8247 5.8261
Cu 11.5019 25.8247 5.8261
Cu 14.0579 25.8247 5.8261
Cu 16.6139 25.8247 5.8261
Cu 19.1698 25.8247 5.8261
Cu 1.27799 0.737848 7.91305
Cu 3.83397 0.737848 7.91305
Cu 6.38995 0.737848 7.91305
Cu 8.94593 0.737848 7.91305
Cu 11.5019 0.737848 7.91305
Cu 14.0579 0.737848 7.91305
Cu 16.6139 0.737848 7.91305
Cu 19.1698 0.737848 7.91305
Cu 4e-15 2.95139 7.91305
Cu 2.55598 2.95139 7.91305
Cu 5.11196 2.95139 7.91305
Cu 7.66794 2.95139 7.91305
Cu 10.2239 2.95139 7.91305
Cu 12.7799 2.95139 7.91305
Cu 15.3359 2.95139 7.91305
Cu 17.8919 2.95139 7.91305
Cu 1.27799 5.16493 7.91305
Cu 3.83397 5.16493 7.91305
Cu 6.38995 5.16493 7.91305
Cu 8.94593 5.16493 7.91305
Cu 11.5019 5.16493 7.91305
Cu 14.0579 5.16493 7.91305
Cu 16.6139 5.16493 7.91305
Cu 19.1698 5.16493 7.91305
Cu 4e-15 7.37848 7.91305
Cu 2.55598 7.37848 7.91305
Cu 5.11196 7.37848 7.91305
Cu 7.66794 7.37848 7.91305
Cu 10.2239 7.37848 7.91305
Cu 12.7799 7.37848 7.91305
Cu 15.3359 7.37848 7.91305
Cu 17.8919 7.37848 7.91305
Cu 1.27799 9.59202 7.91305
Cu 3.83397 9.59202 7.91305
Cu 6.38995 9.59202 7.91305
Cu 8.94593 9.59202 7.91305
Cu 11.5019 9.59202 7.91305
Cu 14.0579 9.59202 7.91305
Cu 16.6139 9.59202 7.91305
Cu 19.1698 9.59202 7.91305
Cu 3e-15 11.8056 7.91305
Cu 2.55598 11.8056 7.91305
Cu 5.11196 11.8056 7.91305
Cu 7.66794 11.8056 7.91305
Cu 10.2239 11.8056 7.91305
Cu 12.7799 11.8056 7.91305
Cu 15.3359 11.8056 7.91305
Cu 17.8919 11.8056 7.91305
Cu 1.27799 14.0191 7.91305
Cu 3.83397 14.0191 7.91305
Cu 6.38995 14.0191 7.91305
Cu 8.94593 14.0191 7.91305
Cu 11.5019 14.0191 7.91305
Cu 14.0579 14.0191 7.91305
Cu 16.6139 14.0191 7.91305
Cu 19.1698 14.0191 7.91305
Cu 3e-15 16.2326 7.91305
Cu 2.55598 16.2326 7.91305
Cu 5.11196 16.2326 7.91305
Cu 7.66794 16.2326 7.91305
Cu 10.2239 16.2326 7.91305
Cu 12.7799 16.2326 7.91305
Cu 15.3359 16.2326 7.91305
Cu 17.8919 16.2326 7.91305
Cu 1.27799 18.4462 7.91305
Cu 3.83397 18.4462 7.91305
Cu 6.38995 18.4462 7.91305
Cu 8.94593 18.4462 7.91305
Cu 11.5019 18.4462 7.91305
Cu 14.0579 18.4462 7.91305
Cu 16.6139 18.4462 7.91305
Cu 19.1698 18.4462 7.91305
Cu 2e-15 20.6597 7.91305
Cu 2.55598 20.6597 7.91305
Cu 5.11196 20.6597 7.91305
Cu 7.66794 20.6597 7.91305
Cu 10.2239 20.6597 7.91305
Cu 12.7799 20.6597 7.91305
Cu 15.3359 20.6597 7.91305
Cu 17.8919 20.6597 7.91305
Cu 1.27799 22.8733 7.91305
Cu 3.83397 22.8733 7.91305
Cu 6.38995 22.8733 7.91305
Cu 8.94593 22.8733 7.91305
Cu 11.5019 22.8733 7.91305
Cu 14.0579 22.8733 7.91305
Cu 16.6139 22.8733 7.91305
Cu 19.1698 22.8733 7.91305
Cu 2e-15 25.0868 7.91305
Cu 2.55598 25.0868 7.91305
Cu 5.11196 25.0868 7.91305
Cu 7.66794 25.0868 7.91305
Cu 10.2239 25.0868 7.91305
Cu 12.7799 25.0868 7.91305
Cu 15.3359 25.0868 7.91305
Cu 17.8919 25.0868 7.91305
Cu 2e-15 4.42709 10.0
Cu 2.55598 4.42709 10.0
Cu 5.11196 4.42709 10.0
Cu 7.66794 4.42709 10.0
Cu 10.2239 4.42709 10.0
Cu 12.7799 4.42709 10.0
Cu 15.3359 4.42709 10.0
Cu 17.8919 4.42709 10.0
Cu 1.27799 6.64063 10.0
Cu 3.83397 6.64063 10.0
Cu 6.38995 6.64063 10.0
Cu 8.94593 6.64063 10.0
Cu 11.5019 6.64063 10.0
Cu 14.0579 6.64063 10.0
Cu 16.6139 6.64063 10.0
Cu 19.1698 6.64063 10.0
Cu -1e-15 8.85417 10.0
Cu 2.55598 8.85417 10.0
Cu 5.11196 8.85417 10.0
Cu 7.66794 8.85417 10.0
Cu 10.2239 8.85417 10.0
Cu 12.7799 8.85417 10.0
Cu 15.3359 8.85417 10.0
Cu 17.8919 8.85417 10.0
Cu 1.27799 11.0677 10.0
Cu 3.83397 11.0677 10.0
Cu 6.38995 11.0677 10.0
Cu 8.94593 11.0677 10.0
Cu 11.5019 11.0677 10.0
Cu 14.0579 11.0677 10.0
Cu 16.6139 11.0677 10.0
Cu 19.1698 11.0677 10.0
Cu 1e-15 13.2813 10.0
Cu 2.55598 13.2813 10.0
Cu 5.11196 13.2813 10.0
Cu 7.66794 13.2813 10.0
Cu 10.2239 13.2813 10.0
Cu 12.7799 13.2813 10.0
Cu 15.3359 13.2813 10.0
Cu 17.8919 13.2813 10.0
Cu 1.27799 15.4948 10.0
Cu 3.83397 15.4948 10.0
Cu 6.38995 15.4948 10.0
Cu 8.94593 15.4948 10.0
Cu 11.5019 15.4948 10.0
Cu 14.0579 15.4948 10.0
Cu 16.6139 15.4948 10.0
Cu 19.1698 15.4948 10.0
Cu -2e-15 17.7083 10.0
Cu 2.55598 17.7083 10.0
Cu 5.11196 17.7083 10.0
Cu 7.66794 17.7083 10.0
Cu 10.2239 17.7083 10.0
Cu 12.7799 17.7083 10.0
Cu 15.3359 17.7083 10.0
Cu 17.8919 17.7083 10.0
Cu 1.27799 19.9219 10.0
Cu 3.83397 19.9219 10.0
Cu 6.38995 19.9219 10.0
Cu 8.94593 19.9219 10.0
Cu 11.5019 19.9219 10.0
Cu 14.0579 19.9219 10.0
Cu 16.6139 19.9219 10.0
Cu 19.1698 19.9219 10.0
Cu 0.0 22.1354 10.0
Cu 2.55598 22.1354 10.0
Cu 5.11196 22.1354 10.0
Cu 7.66794 22.1354 10.0
Cu 10.2239 22.1354 10.0
Cu 12.7799 22.1354 10.0
Cu 15.3359 22.1354 10.0
Cu 17.8919 22.1354 10.0
Cu 1.27799 24.349 10.0
Cu 3.83397 24.349 10.0
Cu 6.38995 24.349 10.0
Cu 8.94593 24.349 10.0
Cu 11.5019 24.349 10.0
Cu 14.0579 24.349 10.0
Cu 16.6139 24.349 10.0
Cu 19.1698 24.349 10.0
Cu 0.0 0.0 10.0
Cu 2.55598 0.0 10.0
Cu 5.11196 0.0 10.0
Cu 7.66794 0.0 10.0
Cu 10.2239 0.0 10.0
Cu 12.7799 0.0 10.0
Cu 15.3359 0.0 10.0
Cu 17.8919 0.0 10.0
Cu 1.27799 2.21354 10.0
Cu 3.83397 2.21354 10.0
Cu 6.38995 2.21354 10.0
Cu 8.94593 2.21354 10.0
Cu 11.5019 2.21354 10.0
Cu 14.0579 2.21354 10.0
Cu 16.6139 2.21354 10.0
Cu 19.1698 2.21354 10.0
